15

Si     2.683541    0.255204   -0.004095
Cl     3.802322    0.715892    1.704068
Cl     3.863935    0.013168   -1.715764
O      1.415094    1.402406   -0.262677
C      0.216363    0.707680   -0.141517
C     -1.043707    1.289554   -0.283780
C     -2.183223    0.484109   -0.138806
C     -2.052405   -0.886917    0.145269
C     -0.781061   -1.463089    0.286564
C      0.346306   -0.654170    0.140658
O      1.654861   -1.110453    0.257992
H     -1.140659    2.344985   -0.502395
H     -3.167857    0.920314   -0.246174
H     -2.936838   -1.500869    0.255491
H     -0.676670   -2.517813    0.505168
