
  --CCDC--111423    3D                              

 40 43  0  0  0  0  0  0  0  0999 V2000
   -0.0581    0.0476   -0.1013 C      0
    1.3560    0.0496   -0.5988 C      0
    2.0800   -1.0645   -0.8247 C      0
    3.4372   -1.0242   -1.2309 C      0
    4.1888   -2.3132   -1.4204 C      0
    4.0513    0.1826   -1.4051 C      0
    3.3786    1.3894   -1.1938 C      0
    2.0420    1.2550   -0.7945 C      0
    1.3461    2.3603   -0.7496 O      0
    2.2931    4.1803   -1.4811 Te     0
    2.3436    5.3862    0.2610 C      0
    3.8043    2.6948   -1.3957 N      0
    5.0922    3.1459   -1.6628 C      0
    6.3046    2.5022   -1.4567 C      0
    7.5083    2.9541   -2.0559 C      0
    8.7915    2.2087   -1.8147 C      0
    7.4635    4.0534   -2.8562 C      0
    6.2617    4.7439   -3.0993 C      0
    6.3180    6.0356   -3.8655 C      0
    5.1219    4.2968   -2.5178 C      0
    3.9912    4.9519   -2.6096 O      0
    6.3326    1.6228   -0.8149 H      0
    1.6032   -2.0342   -0.6897 H      0
    5.4050    6.1843   -4.4383 H      0
    7.1568    6.0367   -4.5584 H      0
    6.4355    6.8801   -3.1897 H      0
    1.4345    5.2288    0.8375 H      0
    2.4150    6.4335   -0.0249 H      0
    3.2073    5.1153    0.8646 H      0
    8.9413    1.4431   -2.5732 H      0
    8.7784    1.7232   -0.8411 H      0
    9.6424    2.8860   -1.8442 H      0
    8.3821    4.4085   -3.3210 H      0
   -0.6032    0.9076   -0.4848 H      0
   -0.0846    0.0868    0.9857 H      0
   -0.5781   -0.8532   -0.4207 H      0
    4.1011   -2.6635   -2.4467 H      0
    3.7983   -3.0875   -0.7634 H      0
    5.2453   -2.1801   -1.1969 H      0
    5.0943    0.2057   -1.7173 H      0
  1  2  1
  2  3  4
  3  4  4
  4  5  1
  4  6  4
  6  7  4
  7  8  4
  2  8  4
  8  9  1
  9 10  1
 10 11  1
 10 12  1
  7 12  1
 12 13  1
 13 14  4
 14 15  4
 15 16  1
 15 17  4
 17 18  4
 18 19  1
 18 20  4
 13 20  4
 20 21  1
 10 21  1
 14 22  1
  3 23  1
 19 24  1
 19 25  1
 19 26  1
 11 27  1
 11 28  1
 11 29  1
 16 30  1
 16 31  1
 16 32  1
 17 33  1
  1 34  1
  1 35  1
  1 36  1
  5 37  1
  5 38  1
  5 39  1
  6 40  1
M  END
$$$$
